version 2
run Default-0-20220316-14:59:53-8098
attr configname Default
attr datetime 20220316-14:59:53
attr experiment Default
attr inifile omnetpp.ini
attr iterationvars ""
attr iterationvarsf ""
attr measurement ""
attr network osm
attr processid 8098
attr repetition 0
attr replication #0
attr resultdir results
attr runnumber 0
attr seedset 0
param *.playgroundSizeX 2500m
param *.playgroundSizeY 2500m
param *.playgroundSizeZ 50m
param *.annotations.draw true
param *.manager.updateInterval 1s
param *.manager.host "\"localhost\""
param *.manager.port 9999
param *.manager.autoShutdown true
param *.manager.launchConfig "xmldoc(\"osm.launchd.xml\")"
param *.rsu[0].mobility.x 410
param *.rsu[0].mobility.y 1180
param *.rsu[0].mobility.z 3
param *.rsu[*].applType "\"trafficlightrsu\""
param *.rsu[*].appl.headerLength "80 bit"
param *.rsu[*].appl.sendBeacons false
param *.rsu[*].appl.dataOnSch false
param *.rsu[*].appl.beaconInterval 1s
param *.rsu[*].appl.beaconUserPriority 7
param *.rsu[*].appl.dataUserPriority 5
param *.rsu[*].nic.phy80211p.antennaOffsetZ "0 m"
param *.connectionManager.sendDirect true
param *.connectionManager.maxInterfDist 2600m
param *.connectionManager.drawMaxIntfDist false
param *.**.nic.mac1609_4.useServiceChannel false
param *.**.nic.mac1609_4.txPower 20mW
param *.**.nic.mac1609_4.bitrate 6Mbps
param *.**.nic.phy80211p.minPowerLevel -110dBm
param *.**.nic.phy80211p.useNoiseFloor true
param *.**.nic.phy80211p.noiseFloor -98dBm
param *.**.nic.phy80211p.decider "xmldoc(\"config.xml\")"
param *.**.nic.phy80211p.analogueModels "xmldoc(\"config.xml\")"
param *.**.nic.phy80211p.usePropagationDelay true
param *.**.nic.phy80211p.antenna "xmldoc(\"antenna.xml\", \"/root/Antenna[@id='monopole']\")"
param *.node[*].nic.phy80211p.antennaOffsetY "0 m"
param *.node[*].nic.phy80211p.antennaOffsetZ "1.895 m"
param *.node[*].applType "\"trafficlight\""
param *.node[*].appl.headerLength "80 bit"
param *.node[*].appl.sendBeacons false
param *.node[*].appl.dataOnSch false
param *.node[*].appl.beaconInterval 1s
param *.node[*].veinsmobility.x 0
param *.node[*].veinsmobility.y 0
param *.node[*].veinsmobility.z 0
param *.node[*].veinsmobility.setHostSpeed false
param *.node[*0].veinsmobility.accidentCount 0
param *.node[*0].veinsmobility.accidentStart 73s
param *.node[*0].veinsmobility.accidentDuration 50s

vector 0 osm.node[0].veinsmobility posx ETV
vector 1 osm.node[0].veinsmobility posy ETV
vector 2 osm.node[0].veinsmobility speed ETV
vector 3 osm.node[0].veinsmobility acceleration ETV
vector 4 osm.node[0].veinsmobility co2emission ETV
4	55	54	4.3094247154448
4	56	55	3.4337183036189
4	57	56	4.9044371084596
4	58	57	0.973
4	59	58	3.9389166364055
4	60	59	4.0118949628187
4	61	60	4.7968091249609
4	62	61	0.973
4	63	62	0.973
4	64	63	3.4882958939886
4	65	64	5.2460218856299
4	66	65	5.8512297377592
4	67	66	8.1417751602369
4	68	67	7.4515406312472
4	69	68	9.025728551885
4	70	69	11.209324365416
4	71	70	7.6123172150247
4	72	71	0.973
4	73	72	0.973
4	74	73	0.973
4	75	74	3.8543450638614
4	90	75	5.1013802296238
4	105	76	5.6301951099038
4	120	77	9.5079317633191
4	121	78	0.973
4	122	79	0.973
4	123	80	0.973
4	124	81	0.973
4	125	82	1.1105960156525
4	126	83	1.1101299997237
4	127	84	1.1100786604257
4	128	85	1.1100182268085
4	129	86	0.973
4	130	87	0.973
4	131	88	0.973
4	132	89	0.973
4	133	90	0.973
4	134	91	0.973
4	135	92	0.973
4	136	93	0.973
4	137	94	0.973
4	138	95	0.973
4	139	96	0.973
4	140	97	0.973
4	141	98	0.973
4	142	99	0.973
4	143	100	0.973
4	144	101	0.973
4	145	102	0.973
4	146	103	0.973
4	147	104	0.973
4	148	105	0.973
4	149	106	0.973
4	150	107	0.973
4	151	108	0.973
4	152	109	0.973
4	153	110	0.973
4	154	111	0.973
4	155	112	0.973
4	156	113	0.973
4	157	114	0.973
4	158	115	0.973
4	159	116	0.973
4	160	117	0.973
4	161	118	0.973
4	162	119	0.973
4	163	120	0.973
4	164	121	0.973
4	165	122	0.973
4	166	123	0.973
4	167	124	0.973
4	168	125	0.973
4	169	126	0.973
4	170	127	0.973
4	171	128	0.973
4	172	129	0.973
4	173	130	0.973
4	174	131	0.973
4	175	132	0.973
4	176	133	0.973
4	177	134	0.973
4	178	135	0.973
4	179	136	0.973
4	180	137	0.973
4	181	138	0.973
4	182	139	0.973
4	183	140	0.973
4	184	141	0.973
4	185	142	0.973
4	186	143	0.973
4	187	144	0.973
4	188	145	0.973
4	189	146	0.973
4	190	147	0.973
4	191	148	0.973
4	192	149	0.973
4	193	150	0.973
4	194	151	0.973
4	195	152	0.973
4	196	153	0.973
4	197	154	0.973
4	198	155	0.973
4	199	156	0.973
4	200	157	0.973
4	201	158	0.973
4	202	159	0.973
4	203	160	0.973
4	204	161	0.973
4	205	162	0.973
4	206	163	0.973
4	207	164	0.973
4	208	165	0.973
4	209	166	0.973
4	210	167	0.973
4	211	168	0.973
4	212	169	0.973
4	213	170	0.973
4	214	171	0.973
4	215	172	0.973
4	216	173	0.973
4	217	174	0.973
4	218	175	0.973
4	219	176	0.973
4	220	177	0.973
4	221	178	0.973
4	222	179	0.973
4	223	180	0.973
4	224	181	2.3435205482236
4	225	182	3.6412683084666
4	226	183	3.8552326208593
4	227	184	5.2335960466536
4	228	185	6.6550875456768
4	229	186	5.347657832192
4	230	187	7.1452167641962
4	231	188	6.8847857471939
4	232	189	11.864799527019
4	233	190	14.641416750789
4	234	191	9.8514892647557
4	235	192	10.290680427598
4	236	193	11.515261207067
4	237	194	15.375342409196
4	238	195	19.02385302148
4	239	196	0.973
4	240	197	5.1264924007076
4	241	198	5.3780826414382
4	242	199	5.1222524234036
3	55	54	2.5623109196546
3	56	55	1.3544627618045
3	57	56	1.7660633045202
3	58	57	-3.900094666115
3	59	58	1.8051334520103
3	60	59	1.4392818092834
3	61	60	1.5147052048706
3	62	61	-1.1860971606835
3	63	62	-3.9421849368606
3	64	63	1.652940650261
3	65	64	2.0997949530138
3	66	65	1.8865424470045
3	67	66	2.2737992957234
3	68	67	1.7152554555098
3	69	68	1.8798766718246
3	70	69	2.1130978513975
3	71	70	1.1364446395978
3	72	71	-3.6649168461095
3	73	72	-3.8319324229017
3	74	73	-4.2555444161082
3	75	74	1.2230064382311
3	90	75	1.528189688758
3	105	76	1.4788391654845
3	120	77	2.3642453478184
3	121	78	-4.1008477887524
3	122	79	-3.0154080302571
3	123	80	-4.5
3	124	81	-1.5587941552652
3	125	82	-0.049847328357004
3	126	83	-0.013561628037445
3	127	84	-0.0012498525531678
3	128	85	-0.0012606207984652
3	129	86	-0.00038023064245919
3	130	87	0
3	131	88	0
3	132	89	0
3	133	90	0
3	134	91	0
3	135	92	0
3	136	93	0
3	137	94	0
3	138	95	0
3	139	96	0
3	140	97	0
3	141	98	0
3	142	99	0
3	143	100	0
3	144	101	0
3	145	102	0
3	146	103	0
3	147	104	0
3	148	105	0
3	149	106	0
3	150	107	0
3	151	108	0
3	152	109	0
3	153	110	0
3	154	111	0
3	155	112	0
3	156	113	0
3	157	114	0
3	158	115	0
3	159	116	0
3	160	117	0
3	161	118	0
3	162	119	0
3	163	120	0
3	164	121	0
3	165	122	0
3	166	123	0
3	167	124	0
3	168	125	0
3	169	126	0
3	170	127	0
3	171	128	0
3	172	129	0
3	173	130	0
3	174	131	0
3	175	132	0
3	176	133	0
3	177	134	0
3	178	135	0
3	179	136	0
3	180	137	0
3	181	138	0
3	182	139	0
3	183	140	0
3	184	141	0
3	185	142	0
3	186	143	0
3	187	144	0
3	188	145	0
3	189	146	0
3	190	147	0
3	191	148	0
3	192	149	0
3	193	150	0
3	194	151	0
3	195	152	0
3	196	153	0
3	197	154	0
3	198	155	0
3	199	156	0
3	200	157	0
3	201	158	0
3	202	159	0
3	203	160	0
3	204	161	0
3	205	162	0
3	206	163	0
3	207	164	0
3	208	165	0
3	209	166	0
3	210	167	0
3	211	168	0
3	212	169	0
3	213	170	0
3	214	171	0
3	215	172	0
3	216	173	0
3	217	174	0
3	218	175	0
3	219	176	0
3	220	177	0
3	221	178	0
3	222	179	0
3	223	180	0
3	224	181	2.1636476929765
3	225	182	2.1996845621383
3	226	183	1.6729553929064
3	227	184	1.9247910779435
3	228	185	2.0578714020317
3	229	186	1.3036597494269
3	230	187	1.6635781639256
3	231	188	1.3876754304394
3	232	189	2.3593932940857
3	233	190	2.5662959037116
3	234	191	1.388996877335
3	235	192	1.3428612101357
3	236	193	1.4291921088938
3	237	194	1.8885980707826
3	238	195	2.2062951407814
3	239	196	-1.0399857374839
3	240	197	0.15218243163545
3	241	198	0.18304643549491
3	242	199	0.13751451529097
2	54	53	2.2281300266739
2	55	54	4.7904409463285
2	56	55	6.1449037081329
2	57	56	7.9109670126531
2	58	57	4.0108723465381
2	59	58	5.8160057985485
2	60	59	7.2552876078319
2	61	60	8.7699928127024
2	62	61	7.583895652019
2	63	62	3.6417107151584
2	64	63	5.2946513654194
2	65	64	7.3944463184332
2	66	65	9.2809887654376
2	67	66	11.554788061161
2	68	67	13.270043516671
2	69	68	15.149920188495
2	70	69	17.263018039893
2	71	70	18.399462679491
2	72	71	14.734545833381
2	73	72	10.902613410479
2	74	73	6.6470689943712
2	75	74	7.8700754326023
2	90	75	9.3982651213603
2	105	76	10.877104286845
2	120	77	13.241349634663
2	121	78	9.1405018459108
2	122	79	6.1250938156537
2	123	80	1.6250938156537
2	124	81	0.066299660388541
2	125	82	0.016452332031537
2	126	83	0.0028907039940922
2	127	84	0.0016408514409244
2	128	85	0.00038023064245919
2	129	86	0
2	130	87	0
2	131	88	0
2	132	89	0
2	133	90	0
2	134	91	0
2	135	92	0
2	136	93	0
2	137	94	0
2	138	95	0
2	139	96	0
2	140	97	0
2	141	98	0
2	142	99	0
2	143	100	0
2	144	101	0
2	145	102	0
2	146	103	0
2	147	104	0
2	148	105	0
2	149	106	0
2	150	107	0
2	151	108	0
2	152	109	0
2	153	110	0
2	154	111	0
2	155	112	0
2	156	113	0
2	157	114	0
2	158	115	0
2	159	116	0
2	160	117	0
2	161	118	0
2	162	119	0
2	163	120	0
2	164	121	0
2	165	122	0
2	166	123	0
2	167	124	0
2	168	125	0
2	169	126	0
2	170	127	0
2	171	128	0
2	172	129	0
2	173	130	0
2	174	131	0
2	175	132	0
2	176	133	0
2	177	134	0
2	178	135	0
2	179	136	0
2	180	137	0
2	181	138	0
2	182	139	0
2	183	140	0
2	184	141	0
2	185	142	0
2	186	143	0
2	187	144	0
2	188	145	0
2	189	146	0
2	190	147	0
2	191	148	0
2	192	149	0
2	193	150	0
2	194	151	0
2	195	152	0
2	196	153	0
2	197	154	0
2	198	155	0
2	199	156	0
2	200	157	0
2	201	158	0
2	202	159	0
2	203	160	0
2	204	161	0
2	205	162	0
2	206	163	0
2	207	164	0
2	208	165	0
2	209	166	0
2	210	167	0
2	211	168	0
2	212	169	0
2	213	170	0
2	214	171	0
2	215	172	0
2	216	173	0
2	217	174	0
2	218	175	0
2	219	176	0
2	220	177	0
2	221	178	0
2	222	179	0
2	223	180	0
2	224	181	2.1636476929765
2	225	182	4.3633322551148
2	226	183	6.0362876480212
2	227	184	7.9610787259648
2	228	185	10.018950127997
2	229	186	11.322609877423
2	230	187	12.986188041349
2	231	188	14.373863471788
2	232	189	16.733256765874
2	233	190	19.299552669586
2	234	191	20.688549546921
2	235	192	22.031410757056
2	236	193	23.46060286595
2	237	194	25.349200936733
2	238	195	27.555496077514
2	239	196	26.51551034003
2	240	197	26.667692771666
2	241	198	26.850739207161
2	242	199	26.988253722452
1	53	52	1153.8351351351
1	54	53	1155.9468403496
1	55	54	1160.4869699672
1	56	55	1166.3107886167
1	57	56	1173.8083897855
1	58	57	1177.6096850184
1	59	58	1183.2323145716
1	60	59	1190.0796575637
1	61	60	1198.4511052775
1	62	61	1205.7736318632
1	63	62	1210.2797360023
1	64	63	1215.3828499922
1	65	64	1221.8002942505
1	66	65	1229.518488139
1	67	66	1231.0943887501
1	68	67	1229.6090937822
1	69	68	1230.4063721285
1	70	69	1231.32821474
1	71	70	1232.3107433273
1	72	71	1235.847007947
1	73	72	1230.1945090865
1	74	73	1225.6668875911
1	75	74	1225.0392387251
1	90	75	1224.9423491099
1	105	76	1224.8252020001
1	120	77	1224.7406850772
1	121	78	1224.709760774
1	122	79	1224.6891375625
1	123	80	1224.6836658662
1	124	81	1224.683442635
1	125	82	1224.6833872399
1	126	83	1224.6833775069
1	127	84	1224.6833719822
1	128	85	1224.6833707019
1	129	86	1224.6833707019
1	130	87	1224.6833707019
1	131	88	1224.6833707019
1	132	89	1224.6833707019
1	133	90	1224.6833707019
1	134	91	1224.6833707019
1	135	92	1224.6833707019
1	136	93	1224.6833707019
1	137	94	1224.6833707019
1	138	95	1224.6833707019
1	139	96	1224.6833707019
1	140	97	1224.6833707019
1	141	98	1224.6833707019
1	142	99	1224.6833707019
1	143	100	1224.6833707019
1	144	101	1224.6833707019
1	145	102	1224.6833707019
1	146	103	1224.6833707019
1	147	104	1224.6833707019
1	148	105	1224.6833707019
1	149	106	1224.6833707019
1	150	107	1224.6833707019
1	151	108	1224.6833707019
1	152	109	1224.6833707019
1	153	110	1224.6833707019
1	154	111	1224.6833707019
1	155	112	1224.6833707019
1	156	113	1224.6833707019
1	157	114	1224.6833707019
1	158	115	1224.6833707019
1	159	116	1224.6833707019
1	160	117	1224.6833707019
1	161	118	1224.6833707019
1	162	119	1224.6833707019
1	163	120	1224.6833707019
1	164	121	1224.6833707019
1	165	122	1224.6833707019
1	166	123	1224.6833707019
1	167	124	1224.6833707019
1	168	125	1224.6833707019
1	169	126	1224.6833707019
1	170	127	1224.6833707019
1	171	128	1224.6833707019
1	172	129	1224.6833707019
1	173	130	1224.6833707019
1	174	131	1224.6833707019
1	175	132	1224.6833707019
1	176	133	1224.6833707019
1	177	134	1224.6833707019
1	178	135	1224.6833707019
1	179	136	1224.6833707019
1	180	137	1224.6833707019
1	181	138	1224.6833707019
1	182	139	1224.6833707019
1	183	140	1224.6833707019
1	184	141	1224.6833707019
1	185	142	1224.6833707019
1	186	143	1224.6833707019
1	187	144	1224.6833707019
1	188	145	1224.6833707019
1	189	146	1224.6833707019
1	190	147	1224.6833707019
1	191	148	1224.6833707019
1	192	149	1224.6833707019
1	193	150	1224.6833707019
1	194	151	1224.6833707019
1	195	152	1224.6833707019
1	196	153	1224.6833707019
1	197	154	1224.6833707019
1	198	155	1224.6833707019
1	199	156	1224.6833707019
1	200	157	1224.6833707019
1	201	158	1224.6833707019
1	202	159	1224.6833707019
1	203	160	1224.6833707019
1	204	161	1224.6833707019
1	205	162	1224.6833707019
1	206	163	1224.6833707019
1	207	164	1224.6833707019
1	208	165	1224.6833707019
1	209	166	1224.6833707019
1	210	167	1224.6833707019
1	211	168	1224.6833707019
1	212	169	1224.6833707019
1	213	170	1224.6833707019
1	214	171	1224.6833707019
1	215	172	1224.6833707019
1	216	173	1224.6833707019
1	217	174	1224.6833707019
1	218	175	1224.6833707019
1	219	176	1224.6833707019
1	220	177	1224.6833707019
1	221	178	1224.6833707019
1	222	179	1224.6833707019
1	223	180	1224.6833707019
1	224	181	1224.7057038679
1	225	182	1224.8021767857
1	226	183	1224.9356386099
1	227	184	1225.1828815594
1	228	185	1225.5976148186
1	229	186	1226.0663129194
1	230	187	1226.6038746421
1	231	188	1227.5934499607
1	232	189	1228.89305884
1	233	190	1230.3919822336
1	234	191	1234.7527032326
1	235	192	1235.3723172193
1	236	193	1236.0321259729
1	237	194	1236.7450498808
1	238	195	1237.5200238926
1	239	196	1238.2657492233
1	240	197	1239.0157545506
1	241	198	1239.7709078973
1	242	199	1240.5299287184
0	53	52	559.58117117117
0	54	53	558.86924013562
0	55	54	557.33860074616
0	56	55	555.37518406585
0	57	56	552.84747568703
0	58	57	551.56592368201
0	59	58	550.15921764926
0	60	59	547.91125589292
0	61	60	545.32177861571
0	62	61	543.4418693233
0	63	62	541.137941402
0	64	63	542.5130759983
0	65	64	539.48657515618
0	66	65	534.4503984119
0	67	66	524.18861594337
0	68	67	511.01084301028
0	69	68	495.88361597796
0	70	69	478.64611607264
0	71	70	460.27385141633
0	72	71	446.73350796841
0	73	72	437.82510850592
0	74	73	433.13894087559
0	75	74	425.34615633282
0	90	75	415.94786365938
0	105	76	405.07078100737
0	120	77	391.82945172471
0	121	78	382.6889498788
0	122	79	376.56385606315
0	123	80	374.93876224749
0	124	81	374.8724625871
0	125	82	374.85601025507
0	126	83	374.85311955108
0	127	84	374.85147869964
0	128	85	374.85109846899
0	129	86	374.85109846899
0	130	87	374.85109846899
0	131	88	374.85109846899
0	132	89	374.85109846899
0	133	90	374.85109846899
0	134	91	374.85109846899
0	135	92	374.85109846899
0	136	93	374.85109846899
0	137	94	374.85109846899
0	138	95	374.85109846899
0	139	96	374.85109846899
0	140	97	374.85109846899
0	141	98	374.85109846899
0	142	99	374.85109846899
0	143	100	374.85109846899
0	144	101	374.85109846899
0	145	102	374.85109846899
0	146	103	374.85109846899
0	147	104	374.85109846899
0	148	105	374.85109846899
0	149	106	374.85109846899
0	150	107	374.85109846899
0	151	108	374.85109846899
0	152	109	374.85109846899
0	153	110	374.85109846899
0	154	111	374.85109846899
0	155	112	374.85109846899
0	156	113	374.85109846899
0	157	114	374.85109846899
0	158	115	374.85109846899
0	159	116	374.85109846899
0	160	117	374.85109846899
0	161	118	374.85109846899
0	162	119	374.85109846899
0	163	120	374.85109846899
0	164	121	374.85109846899
0	165	122	374.85109846899
0	166	123	374.85109846899
0	167	124	374.85109846899
0	168	125	374.85109846899
0	169	126	374.85109846899
0	170	127	374.85109846899
0	171	128	374.85109846899
0	172	129	374.85109846899
0	173	130	374.85109846899
0	174	131	374.85109846899
0	175	132	374.85109846899
0	176	133	374.85109846899
0	177	134	374.85109846899
0	178	135	374.85109846899
0	179	136	374.85109846899
0	180	137	374.85109846899
0	181	138	374.85109846899
0	182	139	374.85109846899
0	183	140	374.85109846899
0	184	141	374.85109846899
0	185	142	374.85109846899
0	186	143	374.85109846899
0	187	144	374.85109846899
0	188	145	374.85109846899
0	189	146	374.85109846899
0	190	147	374.85109846899
0	191	148	374.85109846899
0	192	149	374.85109846899
0	193	150	374.85109846899
0	194	151	374.85109846899
0	195	152	374.85109846899
0	196	153	374.85109846899
0	197	154	374.85109846899
0	198	155	374.85109846899
0	199	156	374.85109846899
0	200	157	374.85109846899
0	201	158	374.85109846899
0	202	159	374.85109846899
0	203	160	374.85109846899
0	204	161	374.85109846899
0	205	162	374.85109846899
0	206	163	374.85109846899
0	207	164	374.85109846899
0	208	165	374.85109846899
0	209	166	374.85109846899
0	210	167	374.85109846899
0	211	168	374.85109846899
0	212	169	374.85109846899
0	213	170	374.85109846899
0	214	171	374.85109846899
0	215	172	374.85109846899
0	216	173	374.85109846899
0	217	174	374.85109846899
0	218	175	374.85109846899
0	219	176	374.85109846899
0	220	177	374.85109846899
0	221	178	374.85109846899
0	222	179	374.85109846899
0	223	180	374.85109846899
0	224	181	372.68818517224
0	225	182	368.32760928621
0	226	183	362.29513483316
0	227	184	354.33953181163
0	228	185	344.32812228835
0	229	186	333.01403419458
0	230	187	320.03762000273
0	231	188	305.70337282195
0	232	189	289.02083250014
0	233	190	269.77977440201
0	234	191	250.00509377949
0	235	192	227.98245311875
0	236	193	204.53118927102
0	237	194	179.19207915126
0	238	195	151.6475521559
0	239	196	125.14259690841
0	240	197	98.485519808911
0	241	198	71.645469139648
0	242	199	44.667958695827

